data_Rh\(2)
_audit_creation_date              2025-04-15
_audit_creation_method            'Materials Studio'
_symmetry_space_group_name_H-M    'P1'
_symmetry_Int_Tables_number       1
_symmetry_cell_setting            triclinic
loop_
_symmetry_equiv_pos_as_xyz
  x,y,z
_cell_length_a                    20.0000
_cell_length_b                    20.0000
_cell_length_c                    20.0000
_cell_angle_alpha                 90.0000
_cell_angle_beta                  90.0000
_cell_angle_gamma                 90.0000
loop_
_atom_site_label
_atom_site_type_symbol
_atom_site_fract_x
_atom_site_fract_y
_atom_site_fract_z
_atom_site_U_iso_or_equiv
_atom_site_adp_type
_atom_site_occupancy
Rh1    Rh    0.41522   0.27011   0.32011   0.00000  Uiso   1.00
Rh2    Rh    0.60544   0.27011   0.32011   0.00000  Uiso   1.00
Rh3    Rh    0.32011   0.36522   0.32011   0.00000  Uiso   1.00
Rh4    Rh    0.41522   0.46033   0.32011   0.00000  Uiso   1.00
Rh5    Rh    0.51033   0.36522   0.32011   0.00000  Uiso   1.00
Rh6    Rh    0.60544   0.46033   0.32011   0.00000  Uiso   1.00
Rh7    Rh    0.70055   0.36522   0.32011   0.00000  Uiso   1.00
Rh8    Rh    0.32011   0.55544   0.32011   0.00000  Uiso   1.00
Rh9    Rh    0.41522   0.65055   0.32011   0.00000  Uiso   1.00
Rh10   Rh    0.51033   0.55544   0.32011   0.00000  Uiso   1.00
Rh11   Rh    0.60544   0.65055   0.32011   0.00000  Uiso   1.00
Rh12   Rh    0.70055   0.55544   0.32011   0.00000  Uiso   1.00
Rh13   Rh    0.32011   0.27011   0.41522   0.00000  Uiso   1.00
Rh14   Rh    0.41522   0.27011   0.51033   0.00000  Uiso   1.00
Rh15   Rh    0.51033   0.27011   0.41522   0.00000  Uiso   1.00
Rh16   Rh    0.60544   0.27011   0.51033   0.00000  Uiso   1.00
Rh17   Rh    0.70055   0.27011   0.41522   0.00000  Uiso   1.00
Rh18   Rh    0.32011   0.36522   0.51033   0.00000  Uiso   1.00
Rh19   Rh    0.32011   0.46033   0.41522   0.00000  Uiso   1.00
Rh20   Rh    0.41522   0.36522   0.41522   0.00000  Uiso   1.00
Rh21   Rh    0.41522   0.46033   0.51033   0.00000  Uiso   1.00
Rh22   Rh    0.51033   0.36522   0.51033   0.00000  Uiso   1.00
Rh23   Rh    0.51033   0.46033   0.41522   0.00000  Uiso   1.00
Rh24   Rh    0.60544   0.36522   0.41522   0.00000  Uiso   1.00
Rh25   Rh    0.60544   0.46033   0.51033   0.00000  Uiso   1.00
Rh26   Rh    0.70055   0.36522   0.51033   0.00000  Uiso   1.00
Rh27   Rh    0.70055   0.46033   0.41522   0.00000  Uiso   1.00
Rh28   Rh    0.32011   0.55544   0.51033   0.00000  Uiso   1.00
Rh29   Rh    0.32011   0.65055   0.41522   0.00000  Uiso   1.00
Rh30   Rh    0.41522   0.55544   0.41522   0.00000  Uiso   1.00
Rh31   Rh    0.41522   0.65055   0.51033   0.00000  Uiso   1.00
Rh32   Rh    0.51033   0.55544   0.51033   0.00000  Uiso   1.00
Rh33   Rh    0.51033   0.65055   0.41522   0.00000  Uiso   1.00
Rh34   Rh    0.60544   0.55544   0.41522   0.00000  Uiso   1.00
Rh35   Rh    0.60544   0.65055   0.51033   0.00000  Uiso   1.00
Rh36   Rh    0.70055   0.55544   0.51033   0.00000  Uiso   1.00
Rh37   Rh    0.70055   0.65055   0.41522   0.00000  Uiso   1.00
Rh38   Rh    0.32011   0.27011   0.60544   0.00000  Uiso   1.00
Rh39   Rh    0.41522   0.27011   0.70055   0.00000  Uiso   1.00
Rh40   Rh    0.51033   0.27011   0.60544   0.00000  Uiso   1.00
Rh41   Rh    0.60544   0.27011   0.70055   0.00000  Uiso   1.00
Rh42   Rh    0.70055   0.27011   0.60544   0.00000  Uiso   1.00
Rh43   Rh    0.32011   0.36522   0.70055   0.00000  Uiso   1.00
Rh44   Rh    0.32011   0.46033   0.60544   0.00000  Uiso   1.00
Rh45   Rh    0.41522   0.36522   0.60544   0.00000  Uiso   1.00
Rh46   Rh    0.41522   0.46033   0.70055   0.00000  Uiso   1.00
Rh47   Rh    0.51033   0.36522   0.70055   0.00000  Uiso   1.00
Rh48   Rh    0.51033   0.46033   0.60544   0.00000  Uiso   1.00
Rh49   Rh    0.60544   0.36522   0.60544   0.00000  Uiso   1.00
Rh50   Rh    0.60544   0.46033   0.70055   0.00000  Uiso   1.00
Rh51   Rh    0.70055   0.36522   0.70055   0.00000  Uiso   1.00
Rh52   Rh    0.70055   0.46033   0.60544   0.00000  Uiso   1.00
Rh53   Rh    0.32011   0.55544   0.70055   0.00000  Uiso   1.00
Rh54   Rh    0.32011   0.65055   0.60544   0.00000  Uiso   1.00
Rh55   Rh    0.41522   0.55544   0.60544   0.00000  Uiso   1.00
Rh56   Rh    0.41522   0.65055   0.70055   0.00000  Uiso   1.00
Rh57   Rh    0.51033   0.55544   0.70055   0.00000  Uiso   1.00
Rh58   Rh    0.51033   0.65055   0.60544   0.00000  Uiso   1.00
Rh59   Rh    0.60544   0.55544   0.60544   0.00000  Uiso   1.00
Rh60   Rh    0.60544   0.65055   0.70055   0.00000  Uiso   1.00
Rh61   Rh    0.70055   0.55544   0.70055   0.00000  Uiso   1.00
Rh62   Rh    0.70055   0.65055   0.60544   0.00000  Uiso   1.00
